data/cases/case14.m
function mpc = case14
% MATPOWER case format for case14

mpc.version = '2';
mpc.baseMVA = 100.0;

% bus data
% bus_i type Pd Qd Gs Bs area Vm Va baseKV zone Vmax Vmin
mpc.bus = [
	1	3	0.0000	0.0000	0.0000	0.0000	1	1.0600	0.0000	135.0	1	2.0000	0.0000;
	2	2	21.7000	12.7000	0.0000	0.0000	1	1.0450	0.0000	135.0	1	2.0000	0.0000;
	3	2	94.2000	19.0000	0.0000	0.0000	1	1.0100	0.0000	135.0	1	2.0000	0.0000;
	4	1	47.8000	-3.9000	0.0000	0.0000	1	1.0000	0.0000	135.0	1	2.0000	0.0000;
	5	1	7.6000	1.6000	0.0000	0.0000	1	1.0000	0.0000	135.0	1	2.0000	0.0000;
	6	2	11.2000	7.5000	0.0000	0.0000	1	1.0700	0.0000	0.2	1	2.0000	0.0000;
	7	1	0.0000	0.0000	0.0000	0.0000	1	1.0000	0.0000	14.0	1	2.0000	0.0000;
	8	2	0.0000	0.0000	0.0000	0.0000	1	1.0900	0.0000	12.0	1	2.0000	0.0000;
	9	1	29.5000	16.6000	0.0000	19.0000	1	1.0000	0.0000	0.2	1	2.0000	0.0000;
	10	1	9.0000	5.8000	0.0000	0.0000	1	1.0000	0.0000	0.2	1	2.0000	0.0000;
	11	1	3.5000	1.8000	0.0000	0.0000	1	1.0000	0.0000	0.2	1	2.0000	0.0000;
	12	1	6.1000	1.6000	0.0000	0.0000	1	1.0000	0.0000	0.2	1	2.0000	0.0000;
	13	1	13.5000	5.8000	0.0000	0.0000	1	1.0000	0.0000	0.2	1	2.0000	0.0000;
	14	1	14.9000	5.0000	0.0000	0.0000	1	1.0000	0.0000	0.2	1	2.0000	0.0000;
];

% generator data
% bus Pg Qg Qmax Qmin Vg mBase status Pmax Pmin
mpc.gen = [
	1	232.3933	-16.5493	0.0000	0.0000	1.0600	100.0	1	1000000000.0000	-1000000000.0000;
	2	40.0000	43.5571	50.0000	-40.0000	1.0450	100.0	1	140.0000	0.0000;
	3	0.0000	25.0753	40.0000	0.0000	1.0100	100.0	1	100.0000	0.0000;
	6	0.0000	12.7309	24.0000	-6.0000	1.0700	100.0	1	100.0000	0.0000;
	8	0.0000	17.6235	24.0000	-6.0000	1.0900	100.0	1	100.0000	0.0000;
];

% branch data
% fbus tbus r x b rateA rateB rateC ratio angle status angmin angmax
mpc.branch = [
	1	2	0.019380	0.059170	0.052800	9900.0	0.0	0.0	1.0000	0.0000	1	-360.0	360.0;
	1	5	0.054030	0.223040	0.049200	9900.0	0.0	0.0	1.0000	0.0000	1	-360.0	360.0;
	2	3	0.046990	0.197970	0.043800	9900.0	0.0	0.0	1.0000	0.0000	1	-360.0	360.0;
	2	4	0.058110	0.176320	0.034000	9900.0	0.0	0.0	1.0000	0.0000	1	-360.0	360.0;
	2	5	0.056950	0.173880	0.034600	9900.0	0.0	0.0	1.0000	0.0000	1	-360.0	360.0;
	3	4	0.067010	0.171030	0.012800	9900.0	0.0	0.0	1.0000	0.0000	1	-360.0	360.0;
	4	5	0.013350	0.042110	0.000000	9900.0	0.0	0.0	1.0000	0.0000	1	-360.0	360.0;
	6	11	0.094980	0.198900	0.000000	9900.0	0.0	0.0	1.0000	0.0000	1	-360.0	360.0;
	6	12	0.122910	0.255810	0.000000	9900.0	0.0	0.0	1.0000	0.0000	1	-360.0	360.0;
	6	13	0.066150	0.130270	0.000000	9900.0	0.0	0.0	1.0000	0.0000	1	-360.0	360.0;
	9	10	0.031810	0.084500	0.000000	9900.0	0.0	0.0	1.0000	0.0000	1	-360.0	360.0;
	9	14	0.127110	0.270380	0.000000	9900.0	0.0	0.0	1.0000	0.0000	1	-360.0	360.0;
	10	11	0.082050	0.192070	0.000000	9900.0	0.0	0.0	1.0000	0.0000	1	-360.0	360.0;
	12	13	0.220920	0.199880	0.000000	9900.0	0.0	0.0	1.0000	0.0000	1	-360.0	360.0;
	13	14	0.170930	0.348020	0.000000	9900.0	0.0	0.0	1.0000	0.0000	1	-360.0	360.0;
	4	7	0.000000	0.209120	-0.000000	9900.0	0.0	0.0	0.9780	0.0000	1	-360.0	360.0;
	4	9	0.000000	0.556180	-0.000000	9900.0	0.0	0.0	0.9690	0.0000	1	-360.0	360.0;
	5	6	0.000000	0.252020	-0.000000	9900.0	0.0	0.0	0.9320	0.0000	1	-360.0	360.0;
	7	8	0.000000	0.176150	-0.000000	9900.0	0.0	0.0	1.0000	0.0000	1	-360.0	360.0;
	7	9	0.000000	0.110010	-0.000000	9900.0	0.0	0.0	1.0000	0.0000	1	-360.0	360.0;
];
